java/SFINA/experiments/experiment-Case30LinkRemovalRandom/output/time_6/iteration_1/flow/links.txt
id,current,real_power_from,reactive_power_from,real_power_to,reactive_power_to,resistance,reactance,susceptance,rateA,rateB,rateC,ratio,angle,angmin,angmax
1,55.45772338799813,11.798205316504706,-5.381314355562772,-11.767352866541282,2.4738717054529076,0.02,0.06,0.03,130.0,130.0,130.0,0.0,0.0,-360.0,360.0
2,67.46287842578802,14.992859231684807,4.90440793289002,-14.863035301195275,-6.374649628396393,0.05,0.19,0.02,130.0,130.0,130.0,0.0,0.0,-360.0,360.0
3,72.63039518641231,15.734677815708242,6.390623534378212,-15.553356974393612,-7.833853571814773,0.06,0.17,0.02,65.0,65.0,65.0,0.0,0.0,-360.0,360.0
4,58.792701603991254,12.463028747825199,5.174665648867407,-12.444129887042033,-5.099070205734743,0.01,0.04,0.0,130.0,130.0,130.0,0.0,0.0,-360.0,360.0
5,64.55377631630721,14.179770090095259,5.174479244173663,-14.060175053222919,-6.658237967430806,0.05,0.2,0.02,130.0,130.0,130.0,0.0,0.0,-360.0,360.0
6,97.97854917830058,21.122895835740255,8.87085808870377,-20.796729495003323,-9.833433500415191,0.06,0.18,0.02,65.0,65.0,65.0,0.0,0.0,-360.0,360.0
7,134.0022349449167,27.682794017074247,13.160413167561877,-27.584616312204503,-12.76770234808289,0.01,0.04,0.0,90.0,90.0,90.0,0.0,0.0,-360.0,360.0
8,68.17353978773967,14.060172373304027,6.841048405138286,-13.92957695486803,-7.4741623503003645,0.05,0.12,0.01,70.0,70.0,70.0,0.0,0.0,-360.0,360.0
9,40.82693365035145,8.898604760577111,2.564972333116965,-8.870424369613179,-3.425835354876285,0.03,0.08,0.01,130.0,130.0,130.0,0.0,0.0,-360.0,360.0
10,162.83352479148022,29.373857305533583,22.393007299371597,-29.22888787275136,-21.813129568242694,0.01,0.04,0.0,32.0,32.0,32.0,0.0,0.0,-360.0,360.0
11,1.6792300765484365E-11,3.671937296855446E-12,-1.0127846044119573E-12,-3.671937296855447E-12,1.0127846044119898E-12,0.0,0.21,0.0,65.0,65.0,65.0,0.0,0.0,-360.0,360.0
12,45.760360824103515,10.108861932860496,-2.356809569363472,-10.108861932860496,2.997953741837725,0.0,0.56,0.0,32.0,32.0,32.0,0.0,0.0,-360.0,360.0
13,0.0,0.0,-0.0,0.0,-0.0,0.0,0.21,0.0,65.0,65.0,65.0,0.0,0.0,-360.0,360.0
14,43.263170621574034,9.096103975155703,-3.951694274597732,-9.096103975155705,4.06426310805696,0.0,0.11,0.0,65.0,65.0,65.0,0.0,0.0,-360.0,360.0
15,32.83635487894479,-7.285313602368386,-1.827473860537212,7.285313602368386,1.9807491062449933,0.0,0.26,0.0,65.0,65.0,65.0,0.0,0.0,-360.0,360.0
16,167.5862931930152,-36.999999838531856,-10.7558958988202,36.99999983853186,12.905674904737586,0.0,0.14,0.0,65.0,65.0,65.0,0.0,0.0,-360.0,360.0
17,23.768906681048282,5.406100324992218,0.8000467315988476,-5.3690332387152795,-0.7197347113321434,0.12,0.26,0.0,32.0,32.0,32.0,0.0,0.0,-360.0,360.0
18,42.14273006207964,9.59396428991457,-1.3573927731030277,-9.525991958782871,1.4836271023476089,0.07,0.13,0.0,32.0,32.0,32.0,0.0,0.0,-360.0,360.0
19,17.239215764561713,3.514623968060554,1.8324977889932377,-3.4999999635706396,-1.8000000012378707,0.09,0.2,0.0,32.0,32.0,32.0,0.0,0.0,-360.0,360.0
20,5.311528319635901,-0.8309665526209644,-0.8802649695548167,0.8343600731067304,0.8833499881782402,0.22,0.2,0.0,16.0,16.0,16.0,0.0,0.0,-360.0,360.0
21,26.480687101840218,5.684094077085482,-2.0777288447174564,-5.653422417317758,2.1505740366658026,0.08,0.19,0.0,16.0,16.0,16.0,0.0,0.0,-360.0,360.0
22,71.67747791133777,16.226422208414125,-2.361675007609776,-15.917430441360644,2.979658541716737,0.11,0.22,0.0,16.0,16.0,16.0,0.0,0.0,-360.0,360.0
23,58.85091911973181,12.71743069608231,-3.8796582925793435,-12.603812852584323,4.125830286824981,0.06,0.13,0.0,16.0,16.0,16.0,0.0,0.0,-360.0,360.0
24,36.12526871823323,3.10381309736762,-7.525830194655363,-3.0824072601246018,7.575777148222405,0.03,0.07,0.0,32.0,32.0,32.0,0.0,0.0,-360.0,360.0
25,36.760573724883386,-0.8159113267542809,8.430934444423084,0.8824073790072982,-8.275776989166042,0.09,0.21,0.0,32.0,32.0,32.0,0.0,0.0,-360.0,360.0
26,46.82503047189906,9.035963840775155,5.895903600713605,-8.999999990265872,-5.799999999355515,0.03,0.08,0.0,32.0,32.0,32.0,0.0,0.0,-360.0,360.0
27,48.512139099131865,-0.934504976234628,-11.138971392561418,0.9731070730992931,11.229042951912303,0.03,0.07,0.0,32.0,32.0,32.0,0.0,0.0,-360.0,360.0
28,37.80180049392997,-2.976684197109516,-8.185819820327886,3.0313746856845243,8.30301372441719,0.07,0.15,0.0,32.0,32.0,32.0,0.0,0.0,-360.0,360.0
29,125.06504618660644,-18.47310686755333,-22.42904298827927,18.558625488192675,22.60008022955796,0.01,0.02,0.0,32.0,32.0,32.0,0.0,0.0,-360.0,360.0
30,69.64745465915244,-15.734786972043652,-2.505297507790587,16.00000270919042,3.0357289820841205,0.1,0.2,0.0,16.0,16.0,16.0,0.0,0.0,-360.0,360.0
31,39.73284061660109,-3.436220985216324,8.631786175448594,3.5397994019018126,-8.476418550420364,0.12,0.18,0.0,16.0,16.0,16.0,0.0,0.0,-360.0,360.0
32,34.949397218449626,5.415375217999388,6.1202170513523,-5.328556868839788,-5.9399020184823605,0.13,0.27,0.0,16.0,16.0,16.0,0.0,0.0,-360.0,360.0
33,50.77435919103968,-8.698692586225517,-6.664931205215641,8.96650536437936,7.130079714640733,0.19,0.33,0.0,16.0,16.0,16.0,0.0,0.0,-360.0,360.0
34,18.92538155286146,3.5489418278609732,2.37441518559794,-3.499984456838656,-2.2999999816440178,0.25,0.38,0.0,16.0,16.0,16.0,0.0,0.0,-360.0,360.0
35,69.65404325419877,-12.515941042149002,-9.504148219153056,12.807733551866656,10.06120664679585,0.11,0.21,0.0,16.0,16.0,16.0,0.0,0.0,-360.0,360.0
36,28.50082558380501,-0.8060179043808711,-6.4376871202162524,0.8060179043808711,6.61533648701047,0.0,0.4,0.0,65.0,65.0,65.0,0.0,0.0,-360.0,360.0
37,27.368263226564896,6.173882003297199,1.6840278133303952,-6.083785912230444,-1.512026184930224,0.22,0.42,0.0,16.0,16.0,16.0,0.0,0.0,-360.0,360.0
38,31.290684235278523,7.122394950487267,1.6745629326654274,-6.951090403779479,-1.3533669075883261,0.32,0.6,0.0,16.0,16.0,16.0,0.0,0.0,-360.0,360.0
39,16.302915792211884,3.683785912230435,0.6120261849302038,-3.6489095962205407,-0.5466330924116527,0.24,0.45,0.0,16.0,16.0,16.0,0.0,0.0,-360.0,360.0
40,36.713445674698306,-0.7711456499511705,-8.18675751365202,0.8060891680035931,6.437916296931609,0.06,0.2,0.02,32.0,32.0,32.0,0.0,0.0,-360.0,360.0
41,12.363970708097785,-0.6501228351114741,-2.7368379875190976,0.6512944138720519,1.7921179504050309,0.02,0.06,0.01,32.0,32.0,32.0,0.0,0.0,-360.0,360.0
